<routes>
    <vType accel="1.0" decel="4.5" id="standard_car" length="5.0" minGap="2.5" maxSpeed="25" sigma="0.5" />
    <route id="W_N" edges="W2TL TL2N"/>
    <route id="W_E" edges="W2TL TL2E"/>
    <route id="W_S" edges="W2TL TL2S"/>
    <route id="N_W" edges="N2TL TL2W"/>
    <route id="N_E" edges="N2TL TL2E"/>
    <route id="N_S" edges="N2TL TL2S"/>
    <route id="E_W" edges="E2TL TL2W"/>
    <route id="E_N" edges="E2TL TL2N"/>
    <route id="E_S" edges="E2TL TL2S"/>
    <route id="S_W" edges="S2TL TL2W"/>
    <route id="S_N" edges="S2TL TL2N"/>
    <route id="S_E" edges="S2TL TL2E"/>
    <vehicle id="S_N_0" type="standard_car" route="S_N" depart="0" departLane="random" departSpeed="10" />
    <vehicle id="S_E_1" type="standard_car" route="S_E" depart="0" departLane="random" departSpeed="10" />
    <vehicle id="E_N_2" type="standard_car" route="E_N" depart="7" departLane="random" departSpeed="10" />
    <vehicle id="N_S_3" type="standard_car" route="N_S" depart="21" departLane="random" departSpeed="10" />
    <vehicle id="E_W_4" type="standard_car" route="E_W" depart="24" departLane="random" departSpeed="10" />
    <vehicle id="N_S_5" type="standard_car" route="N_S" depart="25" departLane="random" departSpeed="10" />
    <vehicle id="W_S_6" type="standard_car" route="W_S" depart="28" departLane="random" departSpeed="10" />
    <vehicle id="N_S_7" type="standard_car" route="N_S" depart="62" departLane="random" departSpeed="10" />
    <vehicle id="E_W_8" type="standard_car" route="E_W" depart="63" departLane="random" departSpeed="10" />
    <vehicle id="W_S_9" type="standard_car" route="W_S" depart="74" departLane="random" departSpeed="10" />
    <vehicle id="N_S_10" type="standard_car" route="N_S" depart="78" departLane="random" departSpeed="10" />
    <vehicle id="W_S_11" type="standard_car" route="W_S" depart="79" departLane="random" departSpeed="10" />
    <vehicle id="E_S_12" type="standard_car" route="E_S" depart="83" departLane="random" departSpeed="10" />
    <vehicle id="E_W_13" type="standard_car" route="E_W" depart="93" departLane="random" departSpeed="10" />
    <vehicle id="S_N_14" type="standard_car" route="S_N" depart="94" departLane="random" departSpeed="10" />
    <vehicle id="E_N_15" type="standard_car" route="E_N" depart="99" departLane="random" departSpeed="10" />
    <vehicle id="W_N_16" type="standard_car" route="W_N" depart="99" departLane="random" departSpeed="10" />
    <vehicle id="S_W_17" type="standard_car" route="S_W" depart="100" departLane="random" departSpeed="10" />
    <vehicle id="W_E_18" type="standard_car" route="W_E" depart="100" departLane="random" departSpeed="10" />
    <vehicle id="N_S_19" type="standard_car" route="N_S" depart="100" departLane="random" departSpeed="10" />
    <vehicle id="E_S_20" type="standard_car" route="E_S" depart="103" departLane="random" departSpeed="10" />
    <vehicle id="W_E_21" type="standard_car" route="W_E" depart="112" departLane="random" departSpeed="10" />
    <vehicle id="N_E_22" type="standard_car" route="N_E" depart="115" departLane="random" departSpeed="10" />
    <vehicle id="N_W_23" type="standard_car" route="N_W" depart="116" departLane="random" departSpeed="10" />
    <vehicle id="S_N_24" type="standard_car" route="S_N" depart="120" departLane="random" departSpeed="10" />
    <vehicle id="E_S_25" type="standard_car" route="E_S" depart="123" departLane="random" departSpeed="10" />
    <vehicle id="S_N_26" type="standard_car" route="S_N" depart="126" departLane="random" departSpeed="10" />
    <vehicle id="E_N_27" type="standard_car" route="E_N" depart="127" departLane="random" departSpeed="10" />
    <vehicle id="N_S_28" type="standard_car" route="N_S" depart="131" departLane="random" departSpeed="10" />
    <vehicle id="E_W_29" type="standard_car" route="E_W" depart="136" departLane="random" departSpeed="10" />
    <vehicle id="N_S_30" type="standard_car" route="N_S" depart="146" departLane="random" departSpeed="10" />
    <vehicle id="S_W_31" type="standard_car" route="S_W" depart="150" departLane="random" departSpeed="10" />
    <vehicle id="N_E_32" type="standard_car" route="N_E" depart="151" departLane="random" departSpeed="10" />
    <vehicle id="N_E_33" type="standard_car" route="N_E" depart="153" departLane="random" departSpeed="10" />
    <vehicle id="W_E_34" type="standard_car" route="W_E" depart="160" departLane="random" departSpeed="10" />
    <vehicle id="N_S_35" type="standard_car" route="N_S" depart="164" departLane="random" departSpeed="10" />
    <vehicle id="W_S_36" type="standard_car" route="W_S" depart="165" departLane="random" departSpeed="10" />
    <vehicle id="E_W_37" type="standard_car" route="E_W" depart="168" departLane="random" departSpeed="10" />
    <vehicle id="W_E_38" type="standard_car" route="W_E" depart="174" departLane="random" departSpeed="10" />
    <vehicle id="S_N_39" type="standard_car" route="S_N" depart="180" departLane="random" departSpeed="10" />
    <vehicle id="N_S_40" type="standard_car" route="N_S" depart="181" departLane="random" departSpeed="10" />
    <vehicle id="E_W_41" type="standard_car" route="E_W" depart="183" departLane="random" departSpeed="10" />
    <vehicle id="S_N_42" type="standard_car" route="S_N" depart="197" departLane="random" departSpeed="10" />
    <vehicle id="S_N_43" type="standard_car" route="S_N" depart="197" departLane="random" departSpeed="10" />
    <vehicle id="E_S_44" type="standard_car" route="E_S" depart="199" departLane="random" departSpeed="10" />
    <vehicle id="W_S_45" type="standard_car" route="W_S" depart="201" departLane="random" departSpeed="10" />
    <vehicle id="E_S_46" type="standard_car" route="E_S" depart="201" departLane="random" departSpeed="10" />
    <vehicle id="E_W_47" type="standard_car" route="E_W" depart="207" departLane="random" departSpeed="10" />
    <vehicle id="E_N_48" type="standard_car" route="E_N" depart="209" departLane="random" departSpeed="10" />
    <vehicle id="N_E_49" type="standard_car" route="N_E" depart="213" departLane="random" departSpeed="10" />
    <vehicle id="N_W_50" type="standard_car" route="N_W" depart="216" departLane="random" departSpeed="10" />
    <vehicle id="W_N_51" type="standard_car" route="W_N" depart="222" departLane="random" departSpeed="10" />
    <vehicle id="N_W_52" type="standard_car" route="N_W" depart="225" departLane="random" departSpeed="10" />
    <vehicle id="E_W_53" type="standard_car" route="E_W" depart="237" departLane="random" departSpeed="10" />
    <vehicle id="W_S_54" type="standard_car" route="W_S" depart="256" departLane="random" departSpeed="10" />
    <vehicle id="N_E_55" type="standard_car" route="N_E" depart="256" departLane="random" departSpeed="10" />
    <vehicle id="W_E_56" type="standard_car" route="W_E" depart="266" departLane="random" departSpeed="10" />
    <vehicle id="E_S_57" type="standard_car" route="E_S" depart="275" departLane="random" departSpeed="10" />
    <vehicle id="W_E_58" type="standard_car" route="W_E" depart="280" departLane="random" departSpeed="10" />
    <vehicle id="W_N_59" type="standard_car" route="W_N" depart="281" departLane="random" departSpeed="10" />
    <vehicle id="N_W_60" type="standard_car" route="N_W" depart="284" departLane="random" departSpeed="10" />
    <vehicle id="S_N_61" type="standard_car" route="S_N" depart="292" departLane="random" departSpeed="10" />
    <vehicle id="W_N_62" type="standard_car" route="W_N" depart="307" departLane="random" departSpeed="10" />
    <vehicle id="W_E_63" type="standard_car" route="W_E" depart="324" departLane="random" departSpeed="10" />
    <vehicle id="W_E_64" type="standard_car" route="W_E" depart="329" departLane="random" departSpeed="10" />
    <vehicle id="W_E_65" type="standard_car" route="W_E" depart="334" departLane="random" departSpeed="10" />
    <vehicle id="E_N_66" type="standard_car" route="E_N" depart="337" departLane="random" departSpeed="10" />
    <vehicle id="N_W_67" type="standard_car" route="N_W" depart="343" departLane="random" departSpeed="10" />
    <vehicle id="S_E_68" type="standard_car" route="S_E" depart="350" departLane="random" departSpeed="10" />
    <vehicle id="W_S_69" type="standard_car" route="W_S" depart="363" departLane="random" departSpeed="10" />
    <vehicle id="S_N_70" type="standard_car" route="S_N" depart="375" departLane="random" departSpeed="10" />
    <vehicle id="E_S_71" type="standard_car" route="E_S" depart="387" departLane="random" departSpeed="10" />
    <vehicle id="S_N_72" type="standard_car" route="S_N" depart="395" departLane="random" departSpeed="10" />
    <vehicle id="E_W_73" type="standard_car" route="E_W" depart="397" departLane="random" departSpeed="10" />
    <vehicle id="E_W_74" type="standard_car" route="E_W" depart="400" departLane="random" departSpeed="10" />
    <vehicle id="W_E_75" type="standard_car" route="W_E" depart="403" departLane="random" departSpeed="10" />
    <vehicle id="E_W_76" type="standard_car" route="E_W" depart="404" departLane="random" departSpeed="10" />
    <vehicle id="N_S_77" type="standard_car" route="N_S" depart="417" departLane="random" departSpeed="10" />
    <vehicle id="W_E_78" type="standard_car" route="W_E" depart="423" departLane="random" departSpeed="10" />
    <vehicle id="S_N_79" type="standard_car" route="S_N" depart="423" departLane="random" departSpeed="10" />
    <vehicle id="W_E_80" type="standard_car" route="W_E" depart="424" departLane="random" departSpeed="10" />
    <vehicle id="S_W_81" type="standard_car" route="S_W" depart="430" departLane="random" departSpeed="10" />
    <vehicle id="N_S_82" type="standard_car" route="N_S" depart="433" departLane="random" departSpeed="10" />
    <vehicle id="S_N_83" type="standard_car" route="S_N" depart="437" departLane="random" departSpeed="10" />
    <vehicle id="N_S_84" type="standard_car" route="N_S" depart="437" departLane="random" departSpeed="10" />
    <vehicle id="W_N_85" type="standard_car" route="W_N" depart="447" departLane="random" departSpeed="10" />
    <vehicle id="W_S_86" type="standard_car" route="W_S" depart="448" departLane="random" departSpeed="10" />
    <vehicle id="W_N_87" type="standard_car" route="W_N" depart="449" departLane="random" departSpeed="10" />
    <vehicle id="E_W_88" type="standard_car" route="E_W" depart="460" departLane="random" departSpeed="10" />
    <vehicle id="S_E_89" type="standard_car" route="S_E" depart="469" departLane="random" departSpeed="10" />
    <vehicle id="E_N_90" type="standard_car" route="E_N" depart="497" departLane="random" departSpeed="10" />
    <vehicle id="E_W_91" type="standard_car" route="E_W" depart="504" departLane="random" departSpeed="10" />
    <vehicle id="S_N_92" type="standard_car" route="S_N" depart="508" departLane="random" departSpeed="10" />
    <vehicle id="W_E_93" type="standard_car" route="W_E" depart="508" departLane="random" departSpeed="10" />
    <vehicle id="N_E_94" type="standard_car" route="N_E" depart="523" departLane="random" departSpeed="10" />
    <vehicle id="E_W_95" type="standard_car" route="E_W" depart="525" departLane="random" departSpeed="10" />
    <vehicle id="S_E_96" type="standard_car" route="S_E" depart="525" departLane="random" departSpeed="10" />
    <vehicle id="S_W_97" type="standard_car" route="S_W" depart="537" departLane="random" departSpeed="10" />
    <vehicle id="S_W_98" type="standard_car" route="S_W" depart="544" departLane="random" departSpeed="10" />
    <vehicle id="W_E_99" type="standard_car" route="W_E" depart="550" departLane="random" departSpeed="10" />
    <vehicle id="W_S_100" type="standard_car" route="W_S" depart="560" departLane="random" departSpeed="10" />
    <vehicle id="N_W_101" type="standard_car" route="N_W" depart="560" departLane="random" departSpeed="10" />
    <vehicle id="S_E_102" type="standard_car" route="S_E" depart="571" departLane="random" departSpeed="10" />
    <vehicle id="W_E_103" type="standard_car" route="W_E" depart="573" departLane="random" departSpeed="10" />
    <vehicle id="S_N_104" type="standard_car" route="S_N" depart="577" departLane="random" departSpeed="10" />
    <vehicle id="S_E_105" type="standard_car" route="S_E" depart="586" departLane="random" departSpeed="10" />
    <vehicle id="S_W_106" type="standard_car" route="S_W" depart="586" departLane="random" departSpeed="10" />
    <vehicle id="W_S_107" type="standard_car" route="W_S" depart="591" departLane="random" departSpeed="10" />
    <vehicle id="E_W_108" type="standard_car" route="E_W" depart="592" departLane="random" departSpeed="10" />
    <vehicle id="S_N_109" type="standard_car" route="S_N" depart="595" departLane="random" departSpeed="10" />
    <vehicle id="S_N_110" type="standard_car" route="S_N" depart="595" departLane="random" departSpeed="10" />
    <vehicle id="N_E_111" type="standard_car" route="N_E" depart="595" departLane="random" departSpeed="10" />
    <vehicle id="W_N_112" type="standard_car" route="W_N" depart="604" departLane="random" departSpeed="10" />
    <vehicle id="W_E_113" type="standard_car" route="W_E" depart="605" departLane="random" departSpeed="10" />
    <vehicle id="N_E_114" type="standard_car" route="N_E" depart="606" departLane="random" departSpeed="10" />
    <vehicle id="N_S_115" type="standard_car" route="N_S" depart="606" departLane="random" departSpeed="10" />
    <vehicle id="E_W_116" type="standard_car" route="E_W" depart="612" departLane="random" departSpeed="10" />
    <vehicle id="S_W_117" type="standard_car" route="S_W" depart="612" departLane="random" departSpeed="10" />
    <vehicle id="W_E_118" type="standard_car" route="W_E" depart="614" departLane="random" departSpeed="10" />
    <vehicle id="S_E_119" type="standard_car" route="S_E" depart="617" departLane="random" departSpeed="10" />
    <vehicle id="W_E_120" type="standard_car" route="W_E" depart="623" departLane="random" departSpeed="10" />
    <vehicle id="E_W_121" type="standard_car" route="E_W" depart="625" departLane="random" departSpeed="10" />
    <vehicle id="N_S_122" type="standard_car" route="N_S" depart="626" departLane="random" departSpeed="10" />
    <vehicle id="N_W_123" type="standard_car" route="N_W" depart="627" departLane="random" departSpeed="10" />
    <vehicle id="W_N_124" type="standard_car" route="W_N" depart="637" departLane="random" departSpeed="10" />
    <vehicle id="N_E_125" type="standard_car" route="N_E" depart="645" departLane="random" departSpeed="10" />
    <vehicle id="N_S_126" type="standard_car" route="N_S" depart="647" departLane="random" departSpeed="10" />
    <vehicle id="W_E_127" type="standard_car" route="W_E" depart="650" departLane="random" departSpeed="10" />
    <vehicle id="S_N_128" type="standard_car" route="S_N" depart="656" departLane="random" departSpeed="10" />
    <vehicle id="S_N_129" type="standard_car" route="S_N" depart="659" departLane="random" departSpeed="10" />
    <vehicle id="N_S_130" type="standard_car" route="N_S" depart="662" departLane="random" departSpeed="10" />
    <vehicle id="E_W_131" type="standard_car" route="E_W" depart="664" departLane="random" departSpeed="10" />
    <vehicle id="E_N_132" type="standard_car" route="E_N" depart="671" departLane="random" departSpeed="10" />
    <vehicle id="N_W_133" type="standard_car" route="N_W" depart="673" departLane="random" departSpeed="10" />
    <vehicle id="E_S_134" type="standard_car" route="E_S" depart="691" departLane="random" departSpeed="10" />
    <vehicle id="W_E_135" type="standard_car" route="W_E" depart="696" departLane="random" departSpeed="10" />
    <vehicle id="W_N_136" type="standard_car" route="W_N" depart="697" departLane="random" departSpeed="10" />
    <vehicle id="N_W_137" type="standard_car" route="N_W" depart="698" departLane="random" departSpeed="10" />
    <vehicle id="E_N_138" type="standard_car" route="E_N" depart="699" departLane="random" departSpeed="10" />
    <vehicle id="N_W_139" type="standard_car" route="N_W" depart="705" departLane="random" departSpeed="10" />
    <vehicle id="S_E_140" type="standard_car" route="S_E" depart="709" departLane="random" departSpeed="10" />
    <vehicle id="W_E_141" type="standard_car" route="W_E" depart="714" departLane="random" departSpeed="10" />
    <vehicle id="W_S_142" type="standard_car" route="W_S" depart="730" departLane="random" departSpeed="10" />
    <vehicle id="E_S_143" type="standard_car" route="E_S" depart="732" departLane="random" departSpeed="10" />
    <vehicle id="W_S_144" type="standard_car" route="W_S" depart="736" departLane="random" departSpeed="10" />
    <vehicle id="S_E_145" type="standard_car" route="S_E" depart="738" departLane="random" departSpeed="10" />
    <vehicle id="E_S_146" type="standard_car" route="E_S" depart="739" departLane="random" departSpeed="10" />
    <vehicle id="W_S_147" type="standard_car" route="W_S" depart="741" departLane="random" departSpeed="10" />
    <vehicle id="S_N_148" type="standard_car" route="S_N" depart="741" departLane="random" departSpeed="10" />
    <vehicle id="E_S_149" type="standard_car" route="E_S" depart="742" departLane="random" departSpeed="10" />
    <vehicle id="E_W_150" type="standard_car" route="E_W" depart="753" departLane="random" departSpeed="10" />
    <vehicle id="S_N_151" type="standard_car" route="S_N" depart="755" departLane="random" departSpeed="10" />
    <vehicle id="W_E_152" type="standard_car" route="W_E" depart="756" departLane="random" departSpeed="10" />
    <vehicle id="W_S_153" type="standard_car" route="W_S" depart="761" departLane="random" departSpeed="10" />
    <vehicle id="N_E_154" type="standard_car" route="N_E" depart="765" departLane="random" departSpeed="10" />
    <vehicle id="W_N_155" type="standard_car" route="W_N" depart="770" departLane="random" departSpeed="10" />
    <vehicle id="E_N_156" type="standard_car" route="E_N" depart="770" departLane="random" departSpeed="10" />
    <vehicle id="S_E_157" type="standard_car" route="S_E" depart="777" departLane="random" departSpeed="10" />
    <vehicle id="E_W_158" type="standard_car" route="E_W" depart="790" departLane="random" departSpeed="10" />
    <vehicle id="E_S_159" type="standard_car" route="E_S" depart="797" departLane="random" departSpeed="10" />
    <vehicle id="E_N_160" type="standard_car" route="E_N" depart="798" departLane="random" departSpeed="10" />
    <vehicle id="E_W_161" type="standard_car" route="E_W" depart="802" departLane="random" departSpeed="10" />
    <vehicle id="E_S_162" type="standard_car" route="E_S" depart="804" departLane="random" departSpeed="10" />
    <vehicle id="W_N_163" type="standard_car" route="W_N" depart="807" departLane="random" departSpeed="10" />
    <vehicle id="S_N_164" type="standard_car" route="S_N" depart="808" departLane="random" departSpeed="10" />
    <vehicle id="E_W_165" type="standard_car" route="E_W" depart="816" departLane="random" departSpeed="10" />
    <vehicle id="S_W_166" type="standard_car" route="S_W" depart="816" departLane="random" departSpeed="10" />
    <vehicle id="W_N_167" type="standard_car" route="W_N" depart="821" departLane="random" departSpeed="10" />
    <vehicle id="E_W_168" type="standard_car" route="E_W" depart="824" departLane="random" departSpeed="10" />
    <vehicle id="W_E_169" type="standard_car" route="W_E" depart="827" departLane="random" departSpeed="10" />
    <vehicle id="S_W_170" type="standard_car" route="S_W" depart="830" departLane="random" departSpeed="10" />
    <vehicle id="N_W_171" type="standard_car" route="N_W" depart="833" departLane="random" departSpeed="10" />
    <vehicle id="S_E_172" type="standard_car" route="S_E" depart="837" departLane="random" departSpeed="10" />
    <vehicle id="S_W_173" type="standard_car" route="S_W" depart="845" departLane="random" departSpeed="10" />
    <vehicle id="S_N_174" type="standard_car" route="S_N" depart="848" departLane="random" departSpeed="10" />
    <vehicle id="S_N_175" type="standard_car" route="S_N" depart="848" departLane="random" departSpeed="10" />
    <vehicle id="N_S_176" type="standard_car" route="N_S" depart="851" departLane="random" departSpeed="10" />
    <vehicle id="S_N_177" type="standard_car" route="S_N" depart="858" departLane="random" departSpeed="10" />
    <vehicle id="E_W_178" type="standard_car" route="E_W" depart="860" departLane="random" departSpeed="10" />
    <vehicle id="E_W_179" type="standard_car" route="E_W" depart="869" departLane="random" departSpeed="10" />
    <vehicle id="E_S_180" type="standard_car" route="E_S" depart="885" departLane="random" departSpeed="10" />
    <vehicle id="W_E_181" type="standard_car" route="W_E" depart="894" departLane="random" departSpeed="10" />
    <vehicle id="N_S_182" type="standard_car" route="N_S" depart="901" departLane="random" departSpeed="10" />
    <vehicle id="E_W_183" type="standard_car" route="E_W" depart="902" departLane="random" departSpeed="10" />
    <vehicle id="N_S_184" type="standard_car" route="N_S" depart="903" departLane="random" departSpeed="10" />
    <vehicle id="S_N_185" type="standard_car" route="S_N" depart="908" departLane="random" departSpeed="10" />
    <vehicle id="W_S_186" type="standard_car" route="W_S" depart="911" departLane="random" departSpeed="10" />
    <vehicle id="W_E_187" type="standard_car" route="W_E" depart="920" departLane="random" departSpeed="10" />
    <vehicle id="N_W_188" type="standard_car" route="N_W" depart="922" departLane="random" departSpeed="10" />
    <vehicle id="W_N_189" type="standard_car" route="W_N" depart="922" departLane="random" departSpeed="10" />
    <vehicle id="S_N_190" type="standard_car" route="S_N" depart="928" departLane="random" departSpeed="10" />
    <vehicle id="N_W_191" type="standard_car" route="N_W" depart="928" departLane="random" departSpeed="10" />
    <vehicle id="S_N_192" type="standard_car" route="S_N" depart="931" departLane="random" departSpeed="10" />
    <vehicle id="S_N_193" type="standard_car" route="S_N" depart="941" departLane="random" departSpeed="10" />
    <vehicle id="W_E_194" type="standard_car" route="W_E" depart="945" departLane="random" departSpeed="10" />
    <vehicle id="W_E_195" type="standard_car" route="W_E" depart="947" departLane="random" departSpeed="10" />
    <vehicle id="E_W_196" type="standard_car" route="E_W" depart="952" departLane="random" departSpeed="10" />
    <vehicle id="S_W_197" type="standard_car" route="S_W" depart="956" departLane="random" departSpeed="10" />
    <vehicle id="S_N_198" type="standard_car" route="S_N" depart="967" departLane="random" departSpeed="10" />
    <vehicle id="S_N_199" type="standard_car" route="S_N" depart="968" departLane="random" departSpeed="10" />
    <vehicle id="E_W_200" type="standard_car" route="E_W" depart="973" departLane="random" departSpeed="10" />
    <vehicle id="W_E_201" type="standard_car" route="W_E" depart="1006" departLane="random" departSpeed="10" />
    <vehicle id="W_E_202" type="standard_car" route="W_E" depart="1020" departLane="random" departSpeed="10" />
    <vehicle id="N_S_203" type="standard_car" route="N_S" depart="1024" departLane="random" departSpeed="10" />
    <vehicle id="N_S_204" type="standard_car" route="N_S" depart="1028" departLane="random" departSpeed="10" />
    <vehicle id="S_E_205" type="standard_car" route="S_E" depart="1028" departLane="random" departSpeed="10" />
    <vehicle id="N_S_206" type="standard_car" route="N_S" depart="1033" departLane="random" departSpeed="10" />
    <vehicle id="S_N_207" type="standard_car" route="S_N" depart="1040" departLane="random" departSpeed="10" />
    <vehicle id="W_E_208" type="standard_car" route="W_E" depart="1040" departLane="random" departSpeed="10" />
    <vehicle id="N_W_209" type="standard_car" route="N_W" depart="1053" departLane="random" departSpeed="10" />
    <vehicle id="E_S_210" type="standard_car" route="E_S" depart="1071" departLane="random" departSpeed="10" />
    <vehicle id="W_N_211" type="standard_car" route="W_N" depart="1072" departLane="random" departSpeed="10" />
    <vehicle id="N_W_212" type="standard_car" route="N_W" depart="1090" departLane="random" departSpeed="10" />
    <vehicle id="W_S_213" type="standard_car" route="W_S" depart="1092" departLane="random" departSpeed="10" />
    <vehicle id="E_W_214" type="standard_car" route="E_W" depart="1102" departLane="random" departSpeed="10" />
    <vehicle id="N_S_215" type="standard_car" route="N_S" depart="1107" departLane="random" departSpeed="10" />
    <vehicle id="S_E_216" type="standard_car" route="S_E" depart="1111" departLane="random" departSpeed="10" />
    <vehicle id="W_N_217" type="standard_car" route="W_N" depart="1111" departLane="random" departSpeed="10" />
    <vehicle id="N_W_218" type="standard_car" route="N_W" depart="1125" departLane="random" departSpeed="10" />
    <vehicle id="N_W_219" type="standard_car" route="N_W" depart="1130" departLane="random" departSpeed="10" />
    <vehicle id="W_E_220" type="standard_car" route="W_E" depart="1131" departLane="random" departSpeed="10" />
    <vehicle id="N_S_221" type="standard_car" route="N_S" depart="1134" departLane="random" departSpeed="10" />
    <vehicle id="S_E_222" type="standard_car" route="S_E" depart="1134" departLane="random" departSpeed="10" />
    <vehicle id="W_N_223" type="standard_car" route="W_N" depart="1152" departLane="random" departSpeed="10" />
    <vehicle id="S_N_224" type="standard_car" route="S_N" depart="1153" departLane="random" departSpeed="10" />
    <vehicle id="N_S_225" type="standard_car" route="N_S" depart="1159" departLane="random" departSpeed="10" />
    <vehicle id="N_S_226" type="standard_car" route="N_S" depart="1159" departLane="random" departSpeed="10" />
    <vehicle id="E_W_227" type="standard_car" route="E_W" depart="1162" departLane="random" departSpeed="10" />
    <vehicle id="S_N_228" type="standard_car" route="S_N" depart="1162" departLane="random" departSpeed="10" />
    <vehicle id="W_E_229" type="standard_car" route="W_E" depart="1167" departLane="random" departSpeed="10" />
    <vehicle id="E_W_230" type="standard_car" route="E_W" depart="1169" departLane="random" departSpeed="10" />
    <vehicle id="S_W_231" type="standard_car" route="S_W" depart="1178" departLane="random" departSpeed="10" />
    <vehicle id="N_E_232" type="standard_car" route="N_E" depart="1179" departLane="random" departSpeed="10" />
    <vehicle id="W_S_233" type="standard_car" route="W_S" depart="1179" departLane="random" departSpeed="10" />
    <vehicle id="W_E_234" type="standard_car" route="W_E" depart="1186" departLane="random" departSpeed="10" />
    <vehicle id="W_N_235" type="standard_car" route="W_N" depart="1198" departLane="random" departSpeed="10" />
    <vehicle id="E_W_236" type="standard_car" route="E_W" depart="1201" departLane="random" departSpeed="10" />
    <vehicle id="S_W_237" type="standard_car" route="S_W" depart="1204" departLane="random" departSpeed="10" />
    <vehicle id="W_E_238" type="standard_car" route="W_E" depart="1207" departLane="random" departSpeed="10" />
    <vehicle id="S_W_239" type="standard_car" route="S_W" depart="1208" departLane="random" departSpeed="10" />
    <vehicle id="W_E_240" type="standard_car" route="W_E" depart="1209" departLane="random" departSpeed="10" />
    <vehicle id="W_S_241" type="standard_car" route="W_S" depart="1219" departLane="random" departSpeed="10" />
    <vehicle id="N_W_242" type="standard_car" route="N_W" depart="1221" departLane="random" departSpeed="10" />
    <vehicle id="W_E_243" type="standard_car" route="W_E" depart="1233" departLane="random" departSpeed="10" />
    <vehicle id="S_N_244" type="standard_car" route="S_N" depart="1241" departLane="random" departSpeed="10" />
    <vehicle id="W_E_245" type="standard_car" route="W_E" depart="1243" departLane="random" departSpeed="10" />
    <vehicle id="E_S_246" type="standard_car" route="E_S" depart="1253" departLane="random" departSpeed="10" />
    <vehicle id="W_E_247" type="standard_car" route="W_E" depart="1289" departLane="random" departSpeed="10" />
    <vehicle id="W_S_248" type="standard_car" route="W_S" depart="1291" departLane="random" departSpeed="10" />
    <vehicle id="W_N_249" type="standard_car" route="W_N" depart="1291" departLane="random" departSpeed="10" />
    <vehicle id="N_W_250" type="standard_car" route="N_W" depart="1305" departLane="random" departSpeed="10" />
    <vehicle id="N_E_251" type="standard_car" route="N_E" depart="1305" departLane="random" departSpeed="10" />
    <vehicle id="W_E_252" type="standard_car" route="W_E" depart="1308" departLane="random" departSpeed="10" />
    <vehicle id="E_W_253" type="standard_car" route="E_W" depart="1320" departLane="random" departSpeed="10" />
    <vehicle id="N_E_254" type="standard_car" route="N_E" depart="1321" departLane="random" departSpeed="10" />
    <vehicle id="W_E_255" type="standard_car" route="W_E" depart="1331" departLane="random" departSpeed="10" />
    <vehicle id="N_S_256" type="standard_car" route="N_S" depart="1337" departLane="random" departSpeed="10" />
    <vehicle id="W_N_257" type="standard_car" route="W_N" depart="1353" departLane="random" departSpeed="10" />
    <vehicle id="E_W_258" type="standard_car" route="E_W" depart="1360" departLane="random" departSpeed="10" />
    <vehicle id="E_W_259" type="standard_car" route="E_W" depart="1365" departLane="random" departSpeed="10" />
    <vehicle id="S_E_260" type="standard_car" route="S_E" depart="1383" departLane="random" departSpeed="10" />
    <vehicle id="E_N_261" type="standard_car" route="E_N" depart="1384" departLane="random" departSpeed="10" />
    <vehicle id="N_E_262" type="standard_car" route="N_E" depart="1392" departLane="random" departSpeed="10" />
    <vehicle id="S_E_263" type="standard_car" route="S_E" depart="1400" departLane="random" departSpeed="10" />
    <vehicle id="N_S_264" type="standard_car" route="N_S" depart="1402" departLane="random" departSpeed="10" />